6536850
  -OEChem-08082504282D

126129  0     1  0  0  0  0  0999 V2000
    7.6897   -2.8866    0.0000 O   0  0  0  0  0  0  0  0  0  0  0  0
    6.4627   -4.3394    0.0000 O   0  0  0  0  0  0  0  0  0  0  0  0
    5.3150   -3.6527    0.0000 O   0  0  0  0  0  0  0  0  0  0  0  0
    7.6897   -1.8866    0.0000 O   0  0  0  0  0  0  0  0  0  0  0  0
    7.3895   -0.5030    0.0000 O   0  0  0  0  0  0  0  0  0  0  0  0
   10.4484    4.6104    0.0000 O   0  0  0  0  0  0  0  0  0  0  0  0
   10.2124   -3.4990    0.0000 O   0  0  0  0  0  0  0  0  0  0  0  0
   12.1805    3.6104    0.0000 O   0  0  0  0  0  0  0  0  0  0  0  0
   10.9671   -2.2044    0.0000 O   0  0  0  0  0  0  0  0  0  0  0  0
    7.2608    2.6726    0.0000 O   0  0  0  0  0  0  0  0  0  0  0  0
    9.1216   -1.5029    0.0000 O   0  0  0  0  0  0  0  0  0  0  0  0
    4.1434    3.1524    0.0000 O   0  0  0  0  0  0  0  0  0  0  0  0
    9.9876   -1.0030    0.0000 N   0  0  0  0  0  0  0  0  0  0  0  0
    6.8237   -2.3866    0.0000 C   0  0  3  0  0  0  0  0  0  0  0  0
    8.5675   -3.4024    0.0000 C   0  0  3  0  0  0  0  0  0  0  0  0
    6.8120   -3.4024    0.0000 C   0  0  3  0  0  0  0  0  0  0  0  0
    7.6897   -3.9137    0.0000 C   0  0  0  0  0  0  0  0  0  0  0  0
    8.5558   -2.3866    0.0000 C   0  0  3  0  0  0  0  0  0  0  0  0
    5.9577   -2.8866    0.0000 C   0  0  3  0  0  0  0  0  0  0  0  0
    5.0917   -2.3866    0.0000 C   0  0  0  0  0  0  0  0  0  0  0  0
    5.0917   -1.3866    0.0000 C   0  0  3  0  0  0  0  0  0  0  0  0
    8.9168   -4.3394    0.0000 C   0  0  0  0  0  0  0  0  0  0  0  0
    9.4218   -2.8866    0.0000 C   0  0  0  0  0  0  0  0  0  0  0  0
    9.5824    2.1104    0.0000 C   0  0  3  0  0  0  0  0  0  0  0  0
    9.5824    3.1104    0.0000 C   0  0  0  0  0  0  0  0  0  0  0  0
   10.4484    1.6104    0.0000 C   0  0  0  0  0  0  0  0  0  0  0  0
   10.4484    3.6104    0.0000 C   0  0  3  0  0  0  0  0  0  0  0  0
   11.3144    3.1104    0.0000 C   0  0  3  0  0  0  0  0  0  0  0  0
    9.1216   -0.5030    0.0000 C   0  0  3  0  0  0  0  0  0  0  0  0
   11.3144    2.1104    0.0000 C   0  0  0  0  0  0  0  0  0  0  0  0
    4.2256   -0.8866    0.0000 C   0  0  0  0  0  0  0  0  0  0  0  0
    9.9876   -2.0030    0.0000 C   0  0  0  0  0  0  0  0  0  0  0  0
    9.1216    0.4970    0.0000 C   0  0  0  0  0  0  0  0  0  0  0  0
    7.3895    0.4970    0.0000 C   0  0  3  0  0  0  0  0  0  0  0  0
   10.8536   -0.5030    0.0000 C   0  0  0  0  0  0  0  0  0  0  0  0
    8.7164    1.6104    0.0000 C   0  0  0  0  0  0  0  0  0  0  0  0
    6.5235    0.9970    0.0000 C   0  0  3  0  0  0  0  0  0  0  0  0
    9.9876    0.9970    0.0000 C   0  0  0  0  0  0  0  0  0  0  0  0
   10.8536    0.4970    0.0000 C   0  0  0  0  0  0  0  0  0  0  0  0
    8.3743    0.6707    0.0000 C   0  0  0  0  0  0  0  0  0  0  0  0
    5.9577   -0.8866    0.0000 C   0  0  0  0  0  0  0  0  0  0  0  0
    6.5235    1.9970    0.0000 C   0  0  3  0  0  0  0  0  0  0  0  0
    8.2556   -1.0030    0.0000 C   0  0  0  0  0  0  0  0  0  0  0  0
    4.2256    0.1134    0.0000 C   0  0  0  0  0  0  0  0  0  0  0  0
    7.0996   -5.1104    0.0000 C   0  0  0  0  0  0  0  0  0  0  0  0
    4.3301   -3.4791    0.0000 C   0  0  0  0  0  0  0  0  0  0  0  0
    5.8164    2.7042    0.0000 C   0  0  0  0  0  0  0  0  0  0  0  0
    6.5235   -0.0030    0.0000 C   0  0  0  0  0  0  0  0  0  0  0  0
    4.5917    1.4794    0.0000 C   0  0  3  0  0  0  0  0  0  0  0  0
    9.2553   -0.0685    0.0000 C   0  0  0  0  0  0  0  0  0  0  0  0
    5.0917    0.6134    0.0000 C   0  0  0  0  0  0  0  0  0  0  0  0
    4.8505    2.4453    0.0000 C   0  0  0  0  0  0  0  0  0  0  0  0
    3.3596    0.6134    0.0000 C   0  0  0  0  0  0  0  0  0  0  0  0
    3.6002    1.3489    0.0000 C   0  0  0  0  0  0  0  0  0  0  0  0
   11.3144    5.1104    0.0000 C   0  0  0  0  0  0  0  0  0  0  0  0
    2.9914    2.1422    0.0000 C   0  0  0  0  0  0  0  0  0  0  0  0
    2.0000    2.0117    0.0000 C   0  0  0  0  0  0  0  0  0  0  0  0
    6.8237   -1.7666    0.0000 H   0  0  0  0  0  0  0  0  0  0  0  0
    9.1770   -3.2888    0.0000 H   0  0  0  0  0  0  0  0  0  0  0  0
    6.2024   -3.2888    0.0000 H   0  0  0  0  0  0  0  0  0  0  0  0
    7.2906   -4.3881    0.0000 H   0  0  0  0  0  0  0  0  0  0  0  0
    8.0889   -4.3881    0.0000 H   0  0  0  0  0  0  0  0  0  0  0  0
    6.3562   -3.3616    0.0000 H   0  0  0  0  0  0  0  0  0  0  0  0
    4.4811   -2.2790    0.0000 H   0  0  0  0  0  0  0  0  0  0  0  0
    4.8796   -2.9692    0.0000 H   0  0  0  0  0  0  0  0  0  0  0  0
    5.6286   -1.6966    0.0000 H   0  0  0  0  0  0  0  0  0  0  0  0
    8.3358   -4.5560    0.0000 H   0  0  0  0  0  0  0  0  0  0  0  0
    9.1333   -4.9204    0.0000 H   0  0  0  0  0  0  0  0  0  0  0  0
    9.4977   -4.1229    0.0000 H   0  0  0  0  0  0  0  0  0  0  0  0
    9.5824    1.4904    0.0000 H   0  0  0  0  0  0  0  0  0  0  0  0
    9.3703    3.6930    0.0000 H   0  0  0  0  0  0  0  0  0  0  0  0
    8.9718    3.0027    0.0000 H   0  0  0  0  0  0  0  0  0  0  0  0
   10.0499    1.1354    0.0000 H   0  0  0  0  0  0  0  0  0  0  0  0
   10.8469    1.1354    0.0000 H   0  0  0  0  0  0  0  0  0  0  0  0
   10.9853    3.9204    0.0000 H   0  0  0  0  0  0  0  0  0  0  0  0
   11.8514    2.8004    0.0000 H   0  0  0  0  0  0  0  0  0  0  0  0
    9.6585   -0.1930    0.0000 H   0  0  0  0  0  0  0  0  0  0  0  0
   11.5265    1.5278    0.0000 H   0  0  0  0  0  0  0  0  0  0  0  0
   11.9250    2.2181    0.0000 H   0  0  0  0  0  0  0  0  0  0  0  0
    3.6150   -0.7790    0.0000 H   0  0  0  0  0  0  0  0  0  0  0  0
    4.0136   -1.4692    0.0000 H   0  0  0  0  0  0  0  0  0  0  0  0
    7.8645    0.0985    0.0000 H   0  0  0  0  0  0  0  0  0  0  0  0
    8.9095    1.0797    0.0000 H   0  0  0  0  0  0  0  0  0  0  0  0
    8.5110    0.3894    0.0000 H   0  0  0  0  0  0  0  0  0  0  0  0
    7.6897   -1.2666    0.0000 H   0  0  0  0  0  0  0  0  0  0  0  0
   11.0657   -1.0856    0.0000 H   0  0  0  0  0  0  0  0  0  0  0  0
   11.4642   -0.3953    0.0000 H   0  0  0  0  0  0  0  0  0  0  0  0
    8.3178    2.0853    0.0000 H   0  0  0  0  0  0  0  0  0  0  0  0
    5.9035    0.9970    0.0000 H   0  0  0  0  0  0  0  0  0  0  0  0
   10.3861    1.4720    0.0000 H   0  0  0  0  0  0  0  0  0  0  0  0
    9.5891    1.4720    0.0000 H   0  0  0  0  0  0  0  0  0  0  0  0
   11.4642    0.3894    0.0000 H   0  0  0  0  0  0  0  0  0  0  0  0
   11.0657    1.0797    0.0000 H   0  0  0  0  0  0  0  0  0  0  0  0
    6.2677   -1.4236    0.0000 H   0  0  0  0  0  0  0  0  0  0  0  0
    6.4946   -0.5766    0.0000 H   0  0  0  0  0  0  0  0  0  0  0  0
    5.6477   -0.3497    0.0000 H   0  0  0  0  0  0  0  0  0  0  0  0
    7.0910    1.7473    0.0000 H   0  0  0  0  0  0  0  0  0  0  0  0
    6.6216   -5.5053    0.0000 H   0  0  0  0  0  0  0  0  0  0  0  0
    7.4945   -5.5884    0.0000 H   0  0  0  0  0  0  0  0  0  0  0  0
    7.5776   -4.7155    0.0000 H   0  0  0  0  0  0  0  0  0  0  0  0
    6.3243    3.0598    0.0000 H   0  0  0  0  0  0  0  0  0  0  0  0
    5.5544    3.2661    0.0000 H   0  0  0  0  0  0  0  0  0  0  0  0
    4.4378   -2.8685    0.0000 H   0  0  0  0  0  0  0  0  0  0  0  0
    3.7195   -3.3714    0.0000 H   0  0  0  0  0  0  0  0  0  0  0  0
    4.2224   -4.0896    0.0000 H   0  0  0  0  0  0  0  0  0  0  0  0
    5.9035   -0.0030    0.0000 H   0  0  0  0  0  0  0  0  0  0  0  0
    6.5235   -0.6230    0.0000 H   0  0  0  0  0  0  0  0  0  0  0  0
    7.1435   -0.0030    0.0000 H   0  0  0  0  0  0  0  0  0  0  0  0
    4.1829    1.9456    0.0000 H   0  0  0  0  0  0  0  0  0  0  0  0
    8.8568   -0.5435    0.0000 H   0  0  0  0  0  0  0  0  0  0  0  0
    9.7302   -0.4670    0.0000 H   0  0  0  0  0  0  0  0  0  0  0  0
    9.6538    0.4064    0.0000 H   0  0  0  0  0  0  0  0  0  0  0  0
    5.5301    0.1750    0.0000 H   0  0  0  0  0  0  0  0  0  0  0  0
   12.7174    3.3004    0.0000 H   0  0  0  0  0  0  0  0  0  0  0  0
    3.6696    1.1503    0.0000 H   0  0  0  0  0  0  0  0  0  0  0  0
    2.8227    0.9234    0.0000 H   0  0  0  0  0  0  0  0  0  0  0  0
    3.0496    0.0764    0.0000 H   0  0  0  0  0  0  0  0  0  0  0  0
    3.0503    1.0626    0.0000 H   0  0  0  0  0  0  0  0  0  0  0  0
    3.7866    0.7576    0.0000 H   0  0  0  0  0  0  0  0  0  0  0  0
   11.6244    4.5735    0.0000 H   0  0  0  0  0  0  0  0  0  0  0  0
   11.8514    5.4204    0.0000 H   0  0  0  0  0  0  0  0  0  0  0  0
   11.0044    5.6473    0.0000 H   0  0  0  0  0  0  0  0  0  0  0  0
    7.1266    3.2779    0.0000 H   0  0  0  0  0  0  0  0  0  0  0  0
    3.2287    2.7150    0.0000 H   0  0  0  0  0  0  0  0  0  0  0  0
    1.6226    2.5036    0.0000 H   0  0  0  0  0  0  0  0  0  0  0  0
    1.7627    1.4389    0.0000 H   0  0  0  0  0  0  0  0  0  0  0  0
  1 14  1  0  0  0  0
  1 18  1  0  0  0  0
  2 16  1  0  0  0  0
  2 45  1  0  0  0  0
  3 19  1  0  0  0  0
  3 46  1  0  0  0  0
  4 18  1  0  0  0  0
  4 85  1  0  0  0  0
  5 34  1  0  0  0  0
  5 43  1  0  0  0  0
  6 27  1  0  0  0  0
  6 55  1  0  0  0  0
  7 23  2  0  0  0  0
  8 28  1  0  0  0  0
  8114  1  0  0  0  0
  9 32  2  0  0  0  0
 10 42  1  0  0  0  0
 10123  1  0  0  0  0
 11 43  2  0  0  0  0
 12 52  2  0  0  0  0
 13 29  1  0  0  0  0
 13 32  1  0  0  0  0
 13 35  1  0  0  0  0
 14 16  1  0  0  0  0
 14 19  1  0  0  0  0
 14 58  1  0  0  0  0
 15 17  1  0  0  0  0
 15 18  1  0  0  0  0
 15 22  1  0  0  0  0
 15 59  1  0  0  0  0
 16 17  1  0  0  0  0
 16 60  1  0  0  0  0
 17 61  1  0  0  0  0
 17 62  1  0  0  0  0
 18 23  1  0  0  0  0
 19 20  1  0  0  0  0
 19 63  1  0  0  0  0
 20 21  1  0  0  0  0
 20 64  1  0  0  0  0
 20 65  1  0  0  0  0
 21 31  1  0  0  0  0
 21 41  1  0  0  0  0
 21 66  1  0  0  0  0
 22 67  1  0  0  0  0
 22 68  1  0  0  0  0
 22 69  1  0  0  0  0
 23 32  1  0  0  0  0
 24 25  1  0  0  0  0
 24 26  1  0  0  0  0
 24 36  1  0  0  0  0
 24 70  1  0  0  0  0
 25 27  1  0  0  0  0
 25 71  1  0  0  0  0
 25 72  1  0  0  0  0
 26 30  1  0  0  0  0
 26 73  1  0  0  0  0
 26 74  1  0  0  0  0
 27 28  1  0  0  0  0
 27 75  1  0  0  0  0
 28 30  1  0  0  0  0
 28 76  1  0  0  0  0
 29 33  1  0  0  0  0
 29 43  1  0  0  0  0
 29 77  1  0  0  0  0
 30 78  1  0  0  0  0
 30 79  1  0  0  0  0
 31 44  1  0  0  0  0
 31 80  1  0  0  0  0
 31 81  1  0  0  0  0
 33 38  1  0  0  0  0
 33 83  1  0  0  0  0
 33 84  1  0  0  0  0
 34 37  1  0  0  0  0
 34 40  1  0  0  0  0
 34 82  1  0  0  0  0
 35 39  1  0  0  0  0
 35 86  1  0  0  0  0
 35 87  1  0  0  0  0
 36 40  2  0  0  0  0
 36 88  1  0  0  0  0
 37 42  1  0  0  0  0
 37 48  1  0  0  0  0
 37 89  1  0  0  0  0
 38 39  1  0  0  0  0
 38 90  1  0  0  0  0
 38 91  1  0  0  0  0
 39 92  1  0  0  0  0
 39 93  1  0  0  0  0
 40 50  1  0  0  0  0
 41 94  1  0  0  0  0
 41 95  1  0  0  0  0
 41 96  1  0  0  0  0
 42 47  1  0  0  0  0
 42 97  1  0  0  0  0
 44 51  2  0  0  0  0
 44 53  1  0  0  0  0
 45 98  1  0  0  0  0
 45 99  1  0  0  0  0
 45100  1  0  0  0  0
 46103  1  0  0  0  0
 46104  1  0  0  0  0
 46105  1  0  0  0  0
 47 52  1  0  0  0  0
 47101  1  0  0  0  0
 47102  1  0  0  0  0
 48106  1  0  0  0  0
 48107  1  0  0  0  0
 48108  1  0  0  0  0
 49 51  1  0  0  0  0
 49 52  1  0  0  0  0
 49 54  1  0  0  0  0
 49109  1  0  0  0  0
 50110  1  0  0  0  0
 50111  1  0  0  0  0
 50112  1  0  0  0  0
 51113  1  0  0  0  0
 53115  1  0  0  0  0
 53116  1  0  0  0  0
 53117  1  0  0  0  0
 54 56  1  0  0  0  0
 54118  1  0  0  0  0
 54119  1  0  0  0  0
 55120  1  0  0  0  0
 55121  1  0  0  0  0
 55122  1  0  0  0  0
 56 57  2  0  0  0  0
 56124  1  0  0  0  0
 57125  1  0  0  0  0
 57126  1  0  0  0  0
M  END
> <PUBCHEM_COMPOUND_CID>
6536850

> <PUBCHEM_COMPOUND_CANONICALIZED>
1

> <PUBCHEM_CACTVS_COMPLEXITY>
1480

> <PUBCHEM_CACTVS_HBOND_ACCEPTOR>
12

> <PUBCHEM_CACTVS_HBOND_DONOR>
3

> <PUBCHEM_CACTVS_ROTATABLE_BOND>
7

> <PUBCHEM_CACTVS_SUBSKEYS>
AAADcfB+PAAAAAAAAAAAAAAAAAAAAAAAAAA8SIAAAAAAAAAAAAAAHgAACAAADTzhgAYCCAMABgCIAqHSGAIAAAAgAAAICAHIAAgTFBYAoSQHUAAHpgCfIAPY7PTOAAAAAAAAAABAAAIAAACAAAAAAAAAAA==

> <PUBCHEM_IUPAC_OPENEYE_NAME>
(18E)-17-allyl-1,14-dihydroxy-12-[(E)-2-(4-hydroxy-3-methoxy-cyclohexyl)-1-methyl-vinyl]-23,25-dimethoxy-13,19,21,27-tetramethyl-11,28-dioxa-4-azatricyclo[22.3.1.04,9]octacos-18-ene-2,3,10,16-tetrone

> <PUBCHEM_IUPAC_CAS_NAME>
(18E)-1,14-dihydroxy-12-[(E)-1-(4-hydroxy-3-methoxycyclohexyl)prop-1-en-2-yl]-23,25-dimethoxy-13,19,21,27-tetramethyl-17-prop-2-enyl-11,28-dioxa-4-azatricyclo[22.3.1.04,9]octacos-18-ene-2,3,10,16-tetrone

> <PUBCHEM_IUPAC_NAME_MARKUP>
(18<I>E</I>)-1,14-dihydroxy-12-[(<I>E</I>)-1-(4-hydroxy-3-methoxycyclohexyl)prop-1-en-2-yl]-23,25-dimethoxy-13,19,21,27-tetramethyl-17-prop-2-enyl-11,28-dioxa-4-azatricyclo[22.3.1.0<SUP>4,9</SUP>]octacos-18-ene-2,3,10,16-tetrone

> <PUBCHEM_IUPAC_NAME>
(18E)-1,14-dihydroxy-12-[(E)-1-(4-hydroxy-3-methoxycyclohexyl)prop-1-en-2-yl]-23,25-dimethoxy-13,19,21,27-tetramethyl-17-prop-2-enyl-11,28-dioxa-4-azatricyclo[22.3.1.04,9]octacos-18-ene-2,3,10,16-tetrone

> <PUBCHEM_IUPAC_SYSTEMATIC_NAME>
(18E)-23,25-dimethoxy-12-[(E)-1-(3-methoxy-4-oxidanyl-cyclohexyl)prop-1-en-2-yl]-13,19,21,27-tetramethyl-1,14-bis(oxidanyl)-17-prop-2-enyl-11,28-dioxa-4-azatricyclo[22.3.1.04,9]octacos-18-ene-2,3,10,16-tetrone

> <PUBCHEM_IUPAC_TRADITIONAL_NAME>
(18E)-17-allyl-1,14-dihydroxy-12-[(E)-2-(4-hydroxy-3-methoxy-cyclohexyl)-1-methyl-vinyl]-23,25-dimethoxy-13,19,21,27-tetramethyl-11,28-dioxa-4-azatricyclo[22.3.1.04,9]octacos-18-ene-2,3,10,16-diquinone

> <PUBCHEM_IUPAC_INCHI>
InChI=1S/C44H69NO12/c1-10-13-31-19-25(2)18-26(3)20-37(54-8)40-38(55-9)22-28(5)44(52,57-40)41(49)42(50)45-17-12-11-14-32(45)43(51)56-39(29(6)34(47)24-35(31)48)27(4)21-30-15-16-33(46)36(23-30)53-7/h10,19,21,26,28-34,36-40,46-47,52H,1,11-18,20,22-24H2,2-9H3/b25-19+,27-21+

> <PUBCHEM_IUPAC_INCHIKEY>
QJJXYPPXXYFBGM-FWWCNTFXSA-N

> <PUBCHEM_XLOGP3>
2.7

> <PUBCHEM_EXACT_MASS>
803.48197664

> <PUBCHEM_MOLECULAR_FORMULA>
C44H69NO12

> <PUBCHEM_MOLECULAR_WEIGHT>
804.0

> <PUBCHEM_SMILES>
CC1CC(C2C(CC(C(O2)(C(=O)C(=O)N3CCCCC3C(=O)OC(C(C(CC(=O)C(/C=C(/C1)\C)CC=C)O)C)/C(=C/C4CCC(C(C4)OC)O)/C)O)C)OC)OC

> <PUBCHEM_CONNECTIVITY_SMILES>
CC1CC(C2C(CC(C(O2)(C(=O)C(=O)N3CCCCC3C(=O)OC(C(C(CC(=O)C(C=C(C1)C)CC=C)O)C)C(=CC4CCC(C(C4)OC)O)C)O)C)OC)OC

> <PUBCHEM_CACTVS_TPSA>
178

> <PUBCHEM_MONOISOTOPIC_WEIGHT>
803.48197664

> <PUBCHEM_TOTAL_CHARGE>
0

> <PUBCHEM_HEAVY_ATOM_COUNT>
57

> <PUBCHEM_ATOM_DEF_STEREO_COUNT>
0

> <PUBCHEM_ATOM_UDEF_STEREO_COUNT>
14

> <PUBCHEM_BOND_DEF_STEREO_COUNT>
2

> <PUBCHEM_BOND_UDEF_STEREO_COUNT>
0

> <PUBCHEM_ISOTOPIC_ATOM_COUNT>
0

> <PUBCHEM_COMPONENT_COUNT>
1

> <PUBCHEM_CACTVS_TAUTO_COUNT>
-1

> <PUBCHEM_COORDINATE_TYPE>
1
5
255

> <PUBCHEM_BONDANNOTATIONS>
14  1  3
42  10  3
18  15  3
15  22  3
16  2  3
21  41  3
24  36  3
29  33  3
19  3  3
34  40  3
37  48  3
49  54  3
27  6  3
28  8  3

$$$$
