35604094
  -OEChem-08082504342D

 73 76  0     1  0  0  0  0  0999 V2000
    5.1096    2.8665    0.0000 O   0  0  0  0  0  0  0  0  0  0  0  0
    7.2852    2.8665    0.0000 O   0  0  0  0  0  0  0  0  0  0  0  0
    8.1654   -0.1807    0.0000 O   0  0  0  0  0  0  0  0  0  0  0  0
    6.1974   -3.4813    0.0000 O   0  0  0  0  0  0  0  0  0  0  0  0
   10.9301    3.4739    0.0000 O   0  0  0  0  0  0  0  0  0  0  0  0
    5.3884    1.1064    0.0000 N   0  0  0  0  0  0  0  0  0  0  0  0
    2.7431    1.1575    0.0000 N   0  0  0  0  0  0  0  0  0  0  0  0
    6.1974    0.5187    0.0000 C   0  0  3  0  0  0  0  0  0  0  0  0
    7.0064    1.1064    0.0000 C   0  0  0  0  0  0  0  0  0  0  0  0
    4.4373    0.7974    0.0000 C   0  0  0  0  0  0  0  0  0  0  0  0
    6.1974   -0.4813    0.0000 C   0  0  0  0  0  0  0  0  0  0  0  0
    5.6974    2.0575    0.0000 C   0  0  0  0  0  0  0  0  0  0  0  0
    6.6974    2.0575    0.0000 C   0  0  0  0  0  0  0  0  0  0  0  0
    3.6942    1.4666    0.0000 C   0  0  0  0  0  0  0  0  0  0  0  0
    7.9575    0.7974    0.0000 C   0  0  0  0  0  0  0  0  0  0  0  0
    7.0634   -0.9813    0.0000 C   0  0  0  0  0  0  0  0  0  0  0  0
    5.3314   -0.9813    0.0000 C   0  0  0  0  0  0  0  0  0  0  0  0
    8.7006    1.4666    0.0000 C   0  0  0  0  0  0  0  0  0  0  0  0
    7.0634   -1.9813    0.0000 C   0  0  0  0  0  0  0  0  0  0  0  0
    5.3314   -1.9813    0.0000 C   0  0  0  0  0  0  0  0  0  0  0  0
    6.1974   -2.4813    0.0000 C   0  0  0  0  0  0  0  0  0  0  0  0
    2.0000    1.8267    0.0000 C   0  0  0  0  0  0  0  0  0  0  0  0
    2.5352    0.1794    0.0000 C   0  0  0  0  0  0  0  0  0  0  0  0
    8.4927    2.4447    0.0000 C   0  0  0  0  0  0  0  0  0  0  0  0
    9.6517    1.1575    0.0000 C   0  0  0  0  0  0  0  0  0  0  0  0
    9.2359    3.1138    0.0000 C   0  0  0  0  0  0  0  0  0  0  0  0
   10.3948    1.8267    0.0000 C   0  0  0  0  0  0  0  0  0  0  0  0
   10.1869    2.8048    0.0000 C   0  0  0  0  0  0  0  0  0  0  0  0
    5.3314   -3.9813    0.0000 C   0  0  0  0  0  0  0  0  0  0  0  0
   11.8811    3.1649    0.0000 C   0  0  0  0  0  0  0  0  0  0  0  0
   12.6243    3.8341    0.0000 C   0  0  0  0  0  0  0  0  0  0  0  0
    5.3314   -4.9813    0.0000 C   0  0  0  0  0  0  0  0  0  0  0  0
   13.5753    3.5250    0.0000 C   0  0  0  0  0  0  0  0  0  0  0  0
   12.4164    4.8122    0.0000 C   0  0  0  0  0  0  0  0  0  0  0  0
   14.3185    4.1942    0.0000 C   0  0  0  0  0  0  0  0  0  0  0  0
   13.1595    5.4813    0.0000 C   0  0  0  0  0  0  0  0  0  0  0  0
   14.1106    5.1723    0.0000 C   0  0  0  0  0  0  0  0  0  0  0  0
   15.2695    3.8852    0.0000 C   0  0  0  0  0  0  0  0  0  0  0  0
    4.4654   -5.4813    0.0000 C   0  0  0  0  0  0  0  0  0  0  0  0
    6.7498    0.2372    0.0000 H   0  0  0  0  0  0  0  0  0  0  0  0
    4.7284    0.2500    0.0000 H   0  0  0  0  0  0  0  0  0  0  0  0
    3.9488    0.4157    0.0000 H   0  0  0  0  0  0  0  0  0  0  0  0
    3.4031    2.0140    0.0000 H   0  0  0  0  0  0  0  0  0  0  0  0
    4.1828    1.8483    0.0000 H   0  0  0  0  0  0  0  0  0  0  0  0
    7.6004   -0.6713    0.0000 H   0  0  0  0  0  0  0  0  0  0  0  0
    4.7945   -0.6713    0.0000 H   0  0  0  0  0  0  0  0  0  0  0  0
    7.6004   -2.2913    0.0000 H   0  0  0  0  0  0  0  0  0  0  0  0
    4.7945   -2.2913    0.0000 H   0  0  0  0  0  0  0  0  0  0  0  0
    2.4149    2.2874    0.0000 H   0  0  0  0  0  0  0  0  0  0  0  0
    1.5393    2.2415    0.0000 H   0  0  0  0  0  0  0  0  0  0  0  0
    1.5851    1.3659    0.0000 H   0  0  0  0  0  0  0  0  0  0  0  0
    1.9288    0.3083    0.0000 H   0  0  0  0  0  0  0  0  0  0  0  0
    2.4063   -0.4271    0.0000 H   0  0  0  0  0  0  0  0  0  0  0  0
    3.1417    0.0505    0.0000 H   0  0  0  0  0  0  0  0  0  0  0  0
    7.9031    2.6363    0.0000 H   0  0  0  0  0  0  0  0  0  0  0  0
    9.7806    0.5511    0.0000 H   0  0  0  0  0  0  0  0  0  0  0  0
    8.7551   -0.3723    0.0000 H   0  0  0  0  0  0  0  0  0  0  0  0
    9.1070    3.7203    0.0000 H   0  0  0  0  0  0  0  0  0  0  0  0
   10.9845    1.6351    0.0000 H   0  0  0  0  0  0  0  0  0  0  0  0
    4.7208   -4.0890    0.0000 H   0  0  0  0  0  0  0  0  0  0  0  0
    5.1193   -3.3987    0.0000 H   0  0  0  0  0  0  0  0  0  0  0  0
   12.3697    2.7832    0.0000 H   0  0  0  0  0  0  0  0  0  0  0  0
   11.5901    2.6175    0.0000 H   0  0  0  0  0  0  0  0  0  0  0  0
    5.8683   -5.2913    0.0000 H   0  0  0  0  0  0  0  0  0  0  0  0
   13.7042    2.9186    0.0000 H   0  0  0  0  0  0  0  0  0  0  0  0
   11.8267    5.0038    0.0000 H   0  0  0  0  0  0  0  0  0  0  0  0
   13.0306    6.0878    0.0000 H   0  0  0  0  0  0  0  0  0  0  0  0
   14.5713    5.5872    0.0000 H   0  0  0  0  0  0  0  0  0  0  0  0
   15.0779    3.2955    0.0000 H   0  0  0  0  0  0  0  0  0  0  0  0
   15.8592    3.6936    0.0000 H   0  0  0  0  0  0  0  0  0  0  0  0
   15.4611    4.4748    0.0000 H   0  0  0  0  0  0  0  0  0  0  0  0
    3.9284   -5.1713    0.0000 H   0  0  0  0  0  0  0  0  0  0  0  0
    4.4654   -6.1013    0.0000 H   0  0  0  0  0  0  0  0  0  0  0  0
  1 12  2  0  0  0  0
  2 13  2  0  0  0  0
  3 15  1  0  0  0  0
  3 57  1  0  0  0  0
  4 21  1  0  0  0  0
  4 29  1  0  0  0  0
  5 28  1  0  0  0  0
  5 30  1  0  0  0  0
  6  8  1  0  0  0  0
  6 10  1  0  0  0  0
  6 12  1  0  0  0  0
  7 14  1  0  0  0  0
  7 22  1  0  0  0  0
  7 23  1  0  0  0  0
  8  9  1  0  0  0  0
  8 11  1  0  0  0  0
  8 40  1  0  0  0  0
  9 13  1  0  0  0  0
  9 15  2  3  0  0  0
 10 14  1  0  0  0  0
 10 41  1  0  0  0  0
 10 42  1  0  0  0  0
 11 16  2  0  0  0  0
 11 17  1  0  0  0  0
 12 13  1  0  0  0  0
 14 43  1  0  0  0  0
 14 44  1  0  0  0  0
 15 18  1  0  0  0  0
 16 19  1  0  0  0  0
 16 45  1  0  0  0  0
 17 20  2  0  0  0  0
 17 46  1  0  0  0  0
 18 24  2  0  0  0  0
 18 25  1  0  0  0  0
 19 21  2  0  0  0  0
 19 47  1  0  0  0  0
 20 21  1  0  0  0  0
 20 48  1  0  0  0  0
 22 49  1  0  0  0  0
 22 50  1  0  0  0  0
 22 51  1  0  0  0  0
 23 52  1  0  0  0  0
 23 53  1  0  0  0  0
 23 54  1  0  0  0  0
 24 26  1  0  0  0  0
 24 55  1  0  0  0  0
 25 27  2  0  0  0  0
 25 56  1  0  0  0  0
 26 28  2  0  0  0  0
 26 58  1  0  0  0  0
 27 28  1  0  0  0  0
 27 59  1  0  0  0  0
 29 32  1  0  0  0  0
 29 60  1  0  0  0  0
 29 61  1  0  0  0  0
 30 31  1  0  0  0  0
 30 62  1  0  0  0  0
 30 63  1  0  0  0  0
 31 33  1  0  0  0  0
 31 34  2  0  0  0  0
 32 39  2  0  0  0  0
 32 64  1  0  0  0  0
 33 35  2  0  0  0  0
 33 65  1  0  0  0  0
 34 36  1  0  0  0  0
 34 66  1  0  0  0  0
 35 37  1  0  0  0  0
 35 38  1  0  0  0  0
 36 37  2  0  0  0  0
 36 67  1  0  0  0  0
 37 68  1  0  0  0  0
 38 69  1  0  0  0  0
 38 70  1  0  0  0  0
 38 71  1  0  0  0  0
 39 72  1  0  0  0  0
 39 73  1  0  0  0  0
M  END
> <PUBCHEM_COMPOUND_ID_TYPE>
0

> <PUBCHEM_TOTAL_CHARGE>
0

> <PUBCHEM_SUBSTANCE_ID>
35604094

> <PUBCHEM_SUBSTANCE_VERSION>
1

> <PUBCHEM_EXT_DATASOURCE_NAME>
ChemSpider

> <PUBCHEM_EXT_DATASOURCE_REGID>
3522214

> <PUBCHEM_XREF_EXT_ID>
3522214

> <PUBCHEM_EXT_DATASOURCE_URL>
http://www.chemspider.com

> <PUBCHEM_EXT_SUBSTANCE_URL>
http://www.chemspider.com/Chemical-Structure.3522214.html

> <PUBCHEM_CID_ASSOCIATIONS>
4317115  1

> <PUBCHEM_COORDINATE_TYPE>
1
3

> <PUBCHEM_BONDANNOTATIONS>
8  11  3
9  15  1

$$$$
